<?xml version="1.0" encoding="UTF-8"?>

<!-- generated on 2026-05-14T23:54:47.903858+02:00 by Eclipse SUMO netconvert 1.26.0
<netconvertConfiguration xmlns:xsi="http://www.w3.org/2001/XMLSchema-instance" xsi:noNamespaceSchemaLocation="http://sumo.dlr.de/xsd/netconvertConfiguration.xsd">

    <input>
        <osm-files value="nicosia.osm"/>
    </input>

    <output>
        <output-file value="nicosia.net.xml"/>
    </output>

    <projection>
        <proj.utm value="true"/>
    </projection>

    <processing>
        <lefthand value="true"/>
    </processing>

    <tls_building>
        <tls.discard-simple value="true"/>
        <tls.join value="true"/>
        <tls.guess-signals value="true"/>
    </tls_building>

    <ramp_guessing>
        <ramps.guess value="true"/>
    </ramp_guessing>

    <edge_removal>
        <remove-edges.isolated value="true"/>
    </edge_removal>

    <junctions>
        <no-turnarounds.except-deadend value="true"/>
    </junctions>

    <pedestrian>
        <sidewalks.guess value="true"/>
        <crossings.guess value="true"/>
    </pedestrian>

    <formats>
        <osm.sidewalks value="true"/>
    </formats>

</netconvertConfiguration>
-->

<net version="1.20" junctionCornerDetail="5" walkingareas="true" lefthand="true" limitTurnSpeed="5.50" xmlns:xsi="http://www.w3.org/2001/XMLSchema-instance" xsi:noNamespaceSchemaLocation="http://sumo.dlr.de/xsd/net_file.xsd">

    <location netOffset="-532823.78,-3891946.25" convBoundary="0.00,-0.00,862.75,520.89" origBoundary="33.360466,35.169902,33.369935,35.174601" projParameter="+proj=utm +zone=36 +ellps=WGS84 +datum=WGS84 +units=m +no_defs"/>

    <type id="highway.footway" priority="1" numLanes="1" speed="2.78" allow="pedestrian" oneway="1" width="2.00"/>
    <type id="highway.living_street" priority="2" numLanes="1" speed="2.78" disallow="tram rail_urban rail rail_electric rail_fast ship container cable_car subway aircraft wheelchair scooter drone" oneway="0"/>
    <type id="highway.pedestrian" priority="1" numLanes="1" speed="2.78" allow="pedestrian" oneway="1" width="2.00"/>
    <type id="highway.residential" priority="3" numLanes="1" speed="13.89" disallow="tram rail_urban rail rail_electric rail_fast ship container cable_car subway aircraft wheelchair scooter drone" oneway="0"/>
    <type id="highway.service" priority="1" numLanes="1" speed="5.56" allow="pedestrian delivery bicycle" oneway="0"/>
    <type id="highway.steps" priority="1" numLanes="1" speed="1.39" allow="pedestrian" oneway="1" width="2.00"/>

    <edge id=":10004147484_0" function="internal">
        <lane id=":10004147484_0_0" index="0" allow="pedestrian delivery bicycle" speed="3.65" length="4.67" shape="274.87,461.07 275.63,459.84 275.67,458.95 274.97,458.38 273.55,458.15"/>
    </edge>
    <edge id=":10004147485_0" function="internal">
        <lane id=":10004147485_0_0" index="0" allow="delivery bicycle" speed="6.21" length="7.12" shape="268.68,460.37 266.37,461.23 264.50,461.53 263.07,461.25 262.09,460.39"/>
    </edge>
    <edge id=":10004147485_1" function="internal">
        <lane id=":10004147485_1_0" index="0" allow="delivery bicycle" speed="5.60" length="6.93" shape="266.96,468.47 266.49,467.02 266.84,465.67 268.01,464.42 270.01,463.28"/>
    </edge>
    <edge id=":10004147485_2" function="internal">
        <lane id=":10004147485_2_0" index="0" disallow="pedestrian tram rail_urban rail rail_electric rail_fast ship container cable_car subway aircraft wheelchair scooter drone" speed="13.89" length="9.44" shape="266.96,468.47 262.09,460.39"/>
        <lane id=":10004147485_2_1" index="1" disallow="pedestrian tram rail_urban rail rail_electric rail_fast ship container cable_car subway aircraft wheelchair scooter drone" speed="13.89" length="9.44" shape="264.20,470.09 259.32,462.01"/>
    </edge>
    <edge id=":10004147485_c0" function="crossing" crossingEdges="27106618#0">
        <lane id=":10004147485_c0_0" index="0" allow="pedestrian" speed="2.78" length="6.40" width="4.00" shape="261.81,469.18 267.33,465.94" outlineShape="262.82,-470.90 268.34,-467.66 266.32,-464.21 260.80,-467.45"/>
    </edge>
    <edge id=":10004147485_w0" function="walkingarea">
        <lane id=":10004147485_w0_0" index="0" allow="pedestrian" speed="2.78" length="5.42" width="4.00" shape="263.50,459.63 265.17,458.52 268.02,458.91 269.35,461.82 270.67,464.74 270.07,466.65 268.34,467.66 266.32,464.21"/>
    </edge>
    <edge id=":10004147485_w1" function="walkingarea">
        <lane id=":10004147485_w1_0" index="0" allow="pedestrian" speed="2.78" length="6.55" width="4.00" shape="260.80,467.45 262.82,470.90 260.06,472.52 255.23,464.52 257.89,462.74"/>
    </edge>
    <edge id=":10004147486_0" function="internal">
        <lane id=":10004147486_0_0" index="0" allow="pedestrian delivery bicycle" speed="3.65" length="4.67" shape="282.09,441.91 282.89,440.71 282.96,439.82 282.28,439.23 280.87,438.95"/>
    </edge>
    <edge id=":10004147487_0" function="internal">
        <lane id=":10004147487_0_0" index="0" allow="delivery bicycle" speed="5.48" length="7.30" shape="261.20,447.09 258.88,447.78 257.15,447.70 256.00,446.85 255.44,445.23"/>
    </edge>
    <edge id=":10004147487_1" function="internal">
        <lane id=":10004147487_1_0" index="0" allow="delivery bicycle" speed="5.66" length="7.58" shape="258.76,455.42 258.23,453.95 258.66,452.56 260.06,451.26 262.42,450.04"/>
    </edge>
    <edge id=":10004147487_2" function="internal">
        <lane id=":10004147487_2_0" index="0" disallow="pedestrian tram rail_urban rail rail_electric rail_fast ship container cable_car subway aircraft wheelchair scooter drone" speed="13.89" length="11.50" shape="258.76,455.42 257.08,452.69 256.25,450.64 255.84,448.43 255.44,445.23"/>
        <lane id=":10004147487_2_1" index="1" disallow="pedestrian tram rail_urban rail rail_electric rail_fast ship container cable_car subway aircraft wheelchair scooter drone" speed="13.89" length="11.50" shape="255.98,457.03 254.12,454.00 253.18,451.72 252.72,449.26 252.28,445.70"/>
    </edge>
    <edge id=":10004147487_c0" function="crossing" crossingEdges="27106618#1">
        <lane id=":10004147487_c0_0" index="0" allow="pedestrian" speed="2.78" length="6.40" width="4.00" shape="253.54,456.25 258.97,452.86" outlineShape="254.52,-458.00 260.12,-454.51 258.94,-452.72 258.21,-451.32 258.11,-451.05 252.59,-454.49 253.20,-455.64"/>
    </edge>
    <edge id=":10004147487_w0" function="walkingarea">
        <lane id=":10004147487_w0_0" index="0" allow="pedestrian" speed="2.78" length="5.61" width="4.00" shape="257.02,444.98 259.01,444.71 260.59,445.61 261.81,448.57 263.03,451.52 261.84,453.55 260.18,454.67 260.03,454.56 258.94,452.72 258.21,451.32 257.76,450.07 257.50,448.76 257.29,447.15"/>
    </edge>
    <edge id=":10004147487_w1" function="walkingarea">
        <lane id=":10004147487_w1_0" index="0" allow="pedestrian" speed="2.78" length="8.85" width="4.00" shape="254.60,457.95 251.88,459.53 250.28,457.03 249.24,455.08 248.60,453.37 248.20,451.56 247.90,449.34 247.53,446.38 247.53,446.38 250.70,445.96 251.03,448.61 251.31,450.64 251.67,452.29 252.25,453.86 253.20,455.64"/>
    </edge>
    <edge id=":10009019932_w0" function="walkingarea">
        <lane id=":10009019932_w0_0" index="0" allow="pedestrian" speed="2.78" length="4.04" width="2.00" shape="164.14,401.07 164.62,403.01 163.85,403.37 163.58,403.66 163.42,403.99 163.36,404.39 163.41,404.85 161.45,405.26 160.42,400.37 162.38,399.96 162.72,400.73 163.00,400.97 163.34,401.10 163.75,401.12"/>
    </edge>
    <edge id=":10009019933_w0" function="walkingarea">
        <lane id=":10009019933_w0_0" index="0" allow="pedestrian" speed="2.78" length="4.10" width="2.00" shape="172.20,414.10 172.67,416.04 171.87,416.43 171.62,416.73 171.46,417.10 171.41,417.53 171.46,418.04 169.50,418.40 169.19,417.63 168.93,417.40 168.62,417.28 168.23,417.26 167.79,417.35 167.23,415.42 168.07,415.00 168.32,414.71 168.47,414.35 168.51,413.94 168.44,413.47 170.39,413.00 170.75,413.77 171.02,414.00 171.35,414.14 171.75,414.17"/>
    </edge>
    <edge id=":10009019934_w0" function="walkingarea">
        <lane id=":10009019934_w0_0" index="0" allow="pedestrian" speed="2.78" length="3.48" width="2.00" shape="176.27,378.35 174.83,379.73 174.11,379.22 173.73,379.11 173.33,379.11 172.92,379.20 172.50,379.41 171.49,377.68 172.27,377.05 172.53,376.68 172.70,376.27 172.79,375.83 172.79,375.35 174.78,375.18 174.97,376.50 175.13,376.94 175.38,377.35 175.75,377.80"/>
    </edge>
    <edge id=":10009019935_w0" function="walkingarea">
        <lane id=":10009019935_w0_0" index="0" allow="pedestrian" speed="2.78" length="4.00" width="2.00" shape="228.35,359.35 229.84,360.75 229.29,361.84 229.13,362.32 229.07,362.76 229.08,363.15 229.18,363.50 227.34,364.29 226.72,362.79 226.46,362.28 226.12,361.83 225.62,361.37 224.91,360.87 226.31,359.44 227.09,359.97 227.44,360.02 227.77,359.94 228.08,359.71"/>
    </edge>
    <edge id=":10009019936_w0" function="walkingarea">
        <lane id=":10009019936_w0_0" index="0" allow="pedestrian" speed="2.78" length="4.24" width="2.00" shape="235.25,402.06 234.37,403.85 233.60,403.65 233.31,403.73 233.08,403.93 232.92,404.24 232.83,404.68 230.84,404.42 230.80,403.47 230.64,403.15 230.38,402.92 230.02,402.78 229.57,402.75 229.52,400.75 230.38,400.56 230.67,400.35 230.87,400.05 230.96,399.67 230.96,399.22 232.95,399.02 233.29,400.25 233.62,400.78 234.06,401.26 234.60,401.69"/>
    </edge>
    <edge id=":10009019940_w0" function="walkingarea">
        <lane id=":10009019940_w0_0" index="0" allow="pedestrian" speed="2.78" length="4.04" width="2.00" shape="167.17,415.44 167.72,417.36 166.88,417.78 166.62,418.07 166.46,418.42 166.41,418.83 166.46,419.29 164.50,419.71 163.46,414.80 165.42,414.39 165.75,415.16 166.01,415.39 166.33,415.51 166.72,415.53"/>
    </edge>
    <edge id=":10009471237_0" function="internal">
        <lane id=":10009471237_0_0" index="0" allow="pedestrian delivery bicycle" speed="3.65" length="4.67" shape="140.00,281.64 139.14,280.49 138.32,280.13 137.54,280.57 136.80,281.81"/>
    </edge>
    <edge id=":10009471237_w0" function="walkingarea">
        <lane id=":10009471237_w0_0" index="0" allow="pedestrian" speed="2.78" length="5.84" width="6.40" shape="142.67,277.13 142.97,279.11 142.15,279.48 141.88,279.83 141.70,280.29 141.60,280.87 141.60,281.56 135.21,281.89 135.00,281.09 134.78,280.84 134.48,280.68 134.11,280.63 133.65,280.67 133.29,278.71"/>
    </edge>
    <edge id=":10009471238_0" function="internal">
        <lane id=":10009471238_0_0" index="0" allow="pedestrian delivery bicycle" speed="3.65" length="4.67" shape="138.95,319.00 139.82,320.15 140.64,320.51 141.42,320.06 142.15,318.82"/>
    </edge>
    <edge id=":10009471238_w0" function="walkingarea">
        <lane id=":10009471238_w0_0" index="0" allow="pedestrian" speed="2.78" length="4.32" width="6.40" shape="138.13,323.00 136.54,321.79 137.14,320.90 137.30,320.55 137.37,320.17 137.38,319.70 137.36,319.09 143.75,318.72 142.85,320.77 141.81,321.13 140.58,321.42 139.30,321.95"/>
    </edge>
    <edge id=":10009471240_w0" function="walkingarea">
        <lane id=":10009471240_w0_0" index="0" allow="pedestrian" speed="2.78" length="1.38" width="2.00" shape="126.35,352.29 124.35,352.44 124.15,349.45 126.15,349.33"/>
    </edge>
    <edge id=":10012233710_w0" function="walkingarea">
        <lane id=":10012233710_w0_0" index="0" allow="pedestrian" speed="2.78" length="4.05" width="2.00" shape="548.77,342.41 548.09,344.29 547.26,344.17 546.93,344.27 546.65,344.48 546.43,344.80 546.27,345.23 544.35,344.68 544.42,343.81 544.30,343.47 544.08,343.18 543.75,342.97 543.32,342.81 543.83,340.87 545.68,341.37 546.32,341.56 546.96,341.77 547.73,342.03"/>
    </edge>
    <edge id=":10012233711_0" function="internal">
        <lane id=":10012233711_0_0" index="0" disallow="pedestrian tram rail_urban rail rail_electric rail_fast ship container cable_car subway aircraft wheelchair scooter drone" speed="13.89" length="4.69" shape="543.84,357.77 548.28,359.30"/>
        <lane id=":10012233711_0_1" index="1" disallow="pedestrian tram rail_urban rail rail_electric rail_fast ship container cable_car subway aircraft wheelchair scooter drone" speed="13.89" length="4.69" shape="544.89,354.74 549.32,356.27"/>
    </edge>
    <edge id=":10012233711_c0" function="crossing" crossingEdges="22892254#3">
        <lane id=":10012233711_c0_0" index="0" allow="pedestrian" speed="2.78" length="6.40" width="4.00" shape="545.54,360.05 547.62,354.00" outlineShape="547.40,-360.79 549.54,-354.55 545.73,-353.35 543.65,-359.40 547.43,-360.70 547.76,-360.81 547.11,-362.70 543.00,-361.29"/>
    </edge>
    <edge id=":10012233711_w0" function="walkingarea">
        <lane id=":10012233711_w0_0" index="0" allow="pedestrian" speed="2.78" length="1.61" width="4.00" shape="547.28,352.04 549.08,352.92 549.51,354.65 545.73,353.35"/>
    </edge>
    <edge id=":10012233711_w1" function="walkingarea">
        <lane id=":10012233711_w1_0" index="0" allow="pedestrian" speed="2.78" length="3.27" width="4.00" shape="543.65,359.40 547.43,360.70 547.76,360.81 547.11,362.70 542.66,361.17 543.32,359.28"/>
    </edge>
    <edge id=":10012233712_w0" function="walkingarea">
        <lane id=":10012233712_w0_0" index="0" allow="pedestrian" speed="2.78" length="4.35" width="2.00" shape="553.75,342.00 554.74,343.74 554.15,344.24 554.08,344.49 554.14,344.75 554.35,345.01 554.71,345.27 553.65,346.97 552.11,345.99 551.56,345.67 550.99,345.38 550.28,345.08 549.30,344.72 549.97,342.84 551.02,342.97 551.62,342.88 552.28,342.69 552.99,342.40"/>
    </edge>
    <edge id=":10012233713_0" function="internal">
        <lane id=":10012233713_0_0" index="0" disallow="pedestrian tram rail_urban rail rail_electric rail_fast ship container cable_car subway aircraft wheelchair scooter drone" speed="13.89" length="8.54" shape="535.33,355.08 543.65,357.70"/>
        <lane id=":10012233713_0_1" index="1" disallow="pedestrian tram rail_urban rail rail_electric rail_fast ship container cable_car subway aircraft wheelchair scooter drone" speed="13.89" length="8.54" shape="536.72,352.16 544.70,354.68"/>
    </edge>
    <edge id=":10012233713_c0" function="crossing" crossingEdges="22892254#2">
        <lane id=":10012233713_c0_0" index="0" allow="pedestrian" speed="2.78" length="6.40" width="4.00" shape="541.24,358.56 543.33,352.51" outlineShape="543.13,-359.21 545.22,-353.17 541.44,-351.86 539.35,-357.90"/>
    </edge>
    <edge id=":10012233713_w0" function="walkingarea">
        <lane id=":10012233713_w0_0" index="0" allow="pedestrian" speed="2.78" length="1.59" width="4.00" shape="542.64,350.67 544.57,351.21 545.22,353.17 541.44,351.86"/>
    </edge>
    <edge id=":10012233713_w1" function="walkingarea">
        <lane id=":10012233713_w1_0" index="0" allow="pedestrian" speed="2.78" length="6.13" width="4.00" shape="539.35,357.90 543.13,359.21 542.47,361.10 534.14,358.51 534.22,356.51"/>
    </edge>
    <edge id=":10012233715_0" function="internal">
        <lane id=":10012233715_0_0" index="0" allow="pedestrian delivery bicycle" speed="3.65" length="4.67" shape="414.03,243.59 412.73,244.21 412.22,244.94 412.50,245.79 413.57,246.75"/>
    </edge>
    <edge id=":10012252547_0" function="internal">
        <lane id=":10012252547_0_0" index="0" allow="delivery bicycle" speed="5.51" length="6.83" shape="375.22,159.24 373.65,159.28 372.46,158.57 371.65,157.13 371.22,154.94"/>
    </edge>
    <edge id=":10012252547_1" function="internal">
        <lane id=":10012252547_1_0" index="0" disallow="pedestrian tram rail_urban rail rail_electric rail_fast ship container cable_car subway aircraft wheelchair scooter drone" speed="13.89" length="6.22" shape="375.22,159.24 369.15,160.66"/>
        <lane id=":10012252547_1_1" index="1" disallow="pedestrian tram rail_urban rail rail_electric rail_fast ship container cable_car subway aircraft wheelchair scooter drone" speed="13.89" length="6.22" shape="375.94,162.35 369.89,163.77"/>
    </edge>
    <edge id=":10012252547_c0" function="crossing" crossingEdges="537752605#0">
        <lane id=":10012252547_c0_0" index="0" allow="pedestrian" speed="2.78" length="6.40" width="4.00" shape="374.36,164.37 372.90,158.13" outlineShape="376.31,-163.91 374.85,-157.68 374.83,-157.58 374.85,-157.68 370.96,-158.59 372.41,-164.82 376.33,-164.01 377.04,-167.03 370.98,-168.44 370.25,-165.33 372.41,-164.82"/>
    </edge>
    <edge id=":10012252547_w0" function="walkingarea">
        <lane id=":10012252547_w0_0" index="0" allow="pedestrian" speed="2.78" length="4.07" width="4.00" shape="368.79,159.10 368.33,157.15 369.63,155.09 372.82,154.79 374.40,155.73 374.85,157.68 370.96,158.59"/>
    </edge>
    <edge id=":10012252547_w1" function="walkingarea">
        <lane id=":10012252547_w1_0" index="0" allow="pedestrian" speed="2.78" length="4.43" width="4.00" shape="372.41,164.82 376.31,163.91 377.04,167.03 370.98,168.44 370.25,165.33"/>
    </edge>
    <edge id=":11071093732_0" function="internal">
        <lane id=":11071093732_0_0" index="0" disallow="pedestrian tram rail_urban rail rail_electric rail_fast ship container cable_car subway aircraft wheelchair scooter drone" speed="13.89" length="5.20" shape="249.56,137.87 248.00,132.91"/>
    </edge>
    <edge id=":11071093732_1" function="internal">
        <lane id=":11071093732_1_0" index="0" allow="delivery bicycle" speed="5.77" length="7.28" shape="249.56,137.87 248.86,136.96 247.52,136.64 245.54,136.92 242.93,137.80"/>
    </edge>
    <edge id=":11071093732_2" function="internal">
        <lane id=":11071093732_2_0" index="0" allow="delivery bicycle" speed="7.02" length="10.05" shape="243.88,140.87 246.34,139.49 247.85,137.70 248.40,135.51 248.00,132.91"/>
    </edge>
    <edge id=":11071093732_c0" function="crossing" crossingEdges="1355502044#0">
        <lane id=":11071093732_c0_0" index="0" allow="pedestrian" speed="2.78" length="3.20" width="4.00" shape="247.43,136.44 250.48,135.48" outlineShape="248.03,-138.35 251.18,-137.36 249.88,-133.57 246.83,-134.53 248.03,-138.35 244.98,-139.31 244.47,-142.36 243.28,-139.39 243.53,-139.29 242.33,-136.32 243.42,-134.35 246.48,-133.39 246.83,-134.53"/>
    </edge>
    <edge id=":11071093732_w0" function="walkingarea">
        <lane id=":11071093732_w0_0" index="0" allow="pedestrian" speed="2.78" length="3.59" width="4.00" shape="249.53,132.43 251.44,131.83 252.99,136.78 251.09,137.39 249.88,133.57"/>
    </edge>
    <edge id=":11071093732_w1" function="walkingarea">
        <lane id=":11071093732_w1_0" index="0" allow="pedestrian" speed="2.78" length="4.35" width="4.00" shape="246.83,134.53 248.03,138.35 244.98,139.31 244.47,142.36 243.28,139.39 243.53,139.29 242.33,136.32 243.42,134.35 246.48,133.39"/>
    </edge>
    <edge id=":11071093733_0" function="internal">
        <lane id=":11071093733_0_0" index="0" allow="pedestrian delivery bicycle" speed="3.65" length="4.67" shape="216.58,148.40 215.77,149.59 215.70,150.48 216.36,151.07 217.78,151.36"/>
    </edge>
    <edge id=":11071162617_0" function="internal">
        <lane id=":11071162617_0_0" index="0" allow="pedestrian delivery bicycle" speed="3.65" length="4.67" shape="179.98,160.29 179.37,161.60 179.44,162.49 180.20,162.97 181.64,163.03"/>
    </edge>
    <edge id=":11071162618_0" function="internal">
        <lane id=":11071162618_0_0" index="0" disallow="pedestrian tram rail_urban rail rail_electric rail_fast ship container cable_car subway aircraft wheelchair scooter drone" speed="13.89" length="9.58" shape="185.52,164.69 182.61,155.56"/>
    </edge>
    <edge id=":11071162618_1" function="internal">
        <lane id=":11071162618_1_0" index="0" allow="delivery bicycle" speed="5.80" length="8.20" shape="185.52,164.69 184.41,161.97 183.14,160.32 181.72,159.72 180.15,160.19"/>
    </edge>
    <edge id=":11071162618_2" function="internal">
        <lane id=":11071162618_2_0" index="0" allow="delivery bicycle" speed="6.72" length="7.94" shape="181.81,162.93 182.85,161.87 183.33,160.29 183.25,158.18 182.61,155.56"/>
    </edge>
    <edge id=":11071162618_c0" function="crossing" crossingEdges="25520985#5">
        <lane id=":11071162618_c0_0" index="0" allow="pedestrian" speed="2.78" length="3.20" width="4.00" shape="183.39,163.27 186.44,162.30" outlineShape="183.99,-165.18 187.04,-164.21 187.74,-159.79 188.95,-163.60 187.04,-164.21 185.83,-160.40 182.78,-161.37"/>
    </edge>
    <edge id=":11071162618_w0" function="walkingarea">
        <lane id=":11071162618_w0_0" index="0" allow="pedestrian" speed="2.78" length="6.49" width="4.00" shape="184.14,155.08 186.04,154.47 188.95,163.60 187.04,164.21 185.83,160.40"/>
    </edge>
    <edge id=":11071162618_w1" function="walkingarea">
        <lane id=":11071162618_w1_0" index="0" allow="pedestrian" speed="2.78" length="3.10" width="4.00" shape="182.78,161.37 183.99,165.18 182.64,164.29 180.98,161.56 179.32,158.82"/>
    </edge>
    <edge id=":11088437549_w0" function="walkingarea">
        <lane id=":11088437549_w0_0" index="0" allow="pedestrian" speed="2.78" length="0.43" width="2.00" shape="112.20,458.68 111.42,460.52 111.37,458.52 111.69,458.52 111.80,458.53 111.91,458.56 112.04,458.61"/>
    </edge>
    <edge id=":11088437550_w0" function="walkingarea">
        <lane id=":11088437550_w0_0" index="0" allow="pedestrian" speed="2.78" length="0.30" width="2.00" shape="91.08,459.03 91.13,461.03 90.83,461.03 90.79,459.03"/>
    </edge>
    <edge id=":11503277765_0" function="internal">
        <lane id=":11503277765_0_0" index="0" allow="pedestrian delivery bicycle" speed="5.56" length="13.25" shape="355.26,130.35 349.72,130.73 345.86,131.41 343.68,132.39 343.17,133.68"/>
    </edge>
    <edge id=":11503277765_1" function="internal">
        <lane id=":11503277765_1_0" index="0" allow="pedestrian delivery bicycle" speed="5.56" length="11.49" shape="355.26,130.35 352.37,130.97 350.70,132.56 350.25,135.12 351.02,138.67"/>
    </edge>
    <edge id=":11503277765_2" function="internal">
        <lane id=":11503277765_2_0" index="0" allow="pedestrian delivery bicycle" speed="5.56" length="15.97" shape="354.05,137.63 351.27,133.57 347.29,131.02 343.97,130.79 343.17,133.68"/>
    </edge>
    <edge id=":11503277765_3" function="internal">
        <lane id=":11503277765_3_0" index="0" allow="pedestrian delivery bicycle" speed="5.56" length="31.89" shape="347.79,139.57 345.35,127.92 345.08,123.89 346.97,127.47 351.02,138.67"/>
    </edge>
    <edge id=":11503277765_w0" function="walkingarea">
        <lane id=":11503277765_w0_0" index="0" allow="pedestrian" speed="2.78" length="8.26" width="6.40" shape="355.20,128.76 355.31,131.95 354.67,132.55 354.62,133.27 354.76,134.27 355.07,135.55 355.56,137.12 349.50,139.19 349.35,138.93 349.41,139.31 349.55,140.03 349.78,141.10 350.10,142.51 340.86,130.73 342.30,129.86 344.28,129.50 347.08,129.20 350.72,128.95"/>
    </edge>
    <edge id=":11503277767_0" function="internal">
        <lane id=":11503277767_0_0" index="0" disallow="pedestrian tram rail_urban rail rail_electric rail_fast ship container cable_car subway aircraft wheelchair scooter drone" speed="13.89" length="6.23" shape="363.57,161.97 357.51,163.39"/>
        <lane id=":11503277767_0_1" index="1" disallow="pedestrian tram rail_urban rail rail_electric rail_fast ship container cable_car subway aircraft wheelchair scooter drone" speed="13.89" length="6.23" shape="364.30,165.08 358.24,166.51"/>
    </edge>
    <edge id=":11503277767_2" function="internal">
        <lane id=":11503277767_2_0" index="0" allow="delivery bicycle" speed="4.87" length="4.93" shape="359.98,159.94 360.16,161.15 359.81,162.13 358.93,162.88 357.51,163.39"/>
    </edge>
    <edge id=":11503277767_c0" function="crossing" crossingEdges="537752605#1">
        <lane id=":11503277767_c0_0" index="0" allow="pedestrian" speed="2.78" length="6.40" width="4.00" shape="362.72,167.10 361.25,160.87" outlineShape="364.67,-166.64 363.20,-160.41 359.05,-160.26 361.49,-159.42 362.74,-158.46 363.18,-160.31 359.31,-161.33 360.78,-167.56 364.67,-166.64 365.41,-169.75 359.33,-171.18 358.60,-168.06 360.78,-167.56"/>
    </edge>
    <edge id=":11503277767_w0" function="walkingarea">
        <lane id=":11503277767_w0_0" index="0" allow="pedestrian" speed="2.78" length="3.43" width="4.00" shape="357.15,161.83 356.69,159.89 358.46,160.46 361.49,159.42 362.74,158.46 363.20,160.41 359.31,161.33"/>
    </edge>
    <edge id=":11503277767_w1" function="walkingarea">
        <lane id=":11503277767_w1_0" index="0" allow="pedestrian" speed="2.78" length="4.44" width="4.00" shape="360.78,167.56 364.67,166.64 365.41,169.75 359.33,171.18 358.60,168.06"/>
    </edge>
    <edge id=":11503325170_0" function="internal">
        <lane id=":11503325170_0_0" index="0" allow="pedestrian delivery bicycle" speed="5.56" length="5.93" shape="354.11,160.13 355.39,159.89 357.26,159.54 359.01,159.39 359.91,159.75"/>
    </edge>
    <edge id=":11503325170_1" function="internal">
        <lane id=":11503325170_1_0" index="0" allow="pedestrian delivery bicycle" speed="5.56" length="11.20" shape="354.11,160.13 357.15,159.28 358.99,157.67 359.61,155.31 359.03,152.21"/>
    </edge>
    <edge id=":11503325170_2" function="internal">
        <lane id=":11503325170_2_0" index="0" allow="pedestrian delivery bicycle" speed="4.86" length="5.25" shape="356.00,153.24 356.27,154.70 355.98,155.81 355.12,156.56 353.69,156.96"/>
    </edge>
    <edge id=":11503325170_3" function="internal">
        <lane id=":11503325170_3_0" index="0" allow="pedestrian delivery bicycle" speed="5.56" length="7.65" shape="356.00,153.24 356.96,155.27 357.96,156.50 358.96,157.72 359.91,159.75"/>
    </edge>
    <edge id=":11503325170_w0" function="walkingarea">
        <lane id=":11503325170_w0_0" index="0" allow="pedestrian" speed="2.78" length="6.22" width="6.40" shape="362.21,161.53 359.18,162.56 358.43,161.84 357.72,161.64 356.81,161.56 355.67,161.58 354.32,161.72 353.48,155.38 354.25,155.11 354.48,154.87 354.59,154.57 354.59,154.20 354.48,153.76 360.54,151.69 361.11,153.73 361.33,155.29 361.38,156.61 361.42,157.93 361.64,159.49"/>
    </edge>
    <edge id=":11586012567_0" function="internal">
        <lane id=":11586012567_0_0" index="0" allow="delivery bicycle" speed="5.66" length="6.80" shape="549.64,248.93 548.24,249.32 546.92,248.93 545.68,247.77 544.51,245.82"/>
    </edge>
    <edge id=":11586012567_1" function="internal">
        <lane id=":11586012567_1_0" index="0" disallow="pedestrian tram rail_urban rail rail_electric rail_fast ship container cable_car subway aircraft wheelchair scooter drone" speed="13.89" length="9.41" shape="549.64,248.93 541.37,253.41"/>
    </edge>
    <edge id=":11586012567_2" function="internal">
        <lane id=":11586012567_2_0" index="0" disallow="pedestrian tram rail_urban rail rail_electric rail_fast ship container cable_car subway aircraft wheelchair scooter drone" speed="13.89" length="9.41" shape="542.90,256.22 551.17,251.74"/>
    </edge>
    <edge id=":11586012567_3" function="internal">
        <lane id=":11586012567_3_0" index="0" allow="delivery bicycle" speed="7.47" length="2.85" shape="542.90,256.22 544.97,254.50 545.03,254.36"/>
    </edge>
    <edge id=":11586012567_6" function="internal">
        <lane id=":11586012567_6_0" index="0" allow="delivery bicycle" speed="7.47" length="8.94" shape="545.03,254.36 545.94,252.20 545.78,249.30 544.51,245.82"/>
    </edge>
    <edge id=":11586012567_4" function="internal">
        <lane id=":11586012567_4_0" index="0" allow="delivery bicycle" speed="5.85" length="6.85" shape="541.63,247.22 542.49,249.40 542.73,251.16 542.36,252.50 541.37,253.41"/>
    </edge>
    <edge id=":11586012567_5" function="internal">
        <lane id=":11586012567_5_0" index="0" allow="delivery bicycle" speed="7.31" length="12.10" shape="541.63,247.22 543.62,250.38 545.88,252.19 548.39,252.64 551.17,251.74"/>
    </edge>
    <edge id=":11586012567_c0" function="crossing" crossingEdges="1355502034 -1355502034">
        <lane id=":11586012567_c0_0" index="0" allow="pedestrian" speed="2.78" length="6.40" width="4.00" shape="550.17,254.10 547.12,248.47" outlineShape="551.93,-253.15 548.88,-247.52 545.36,-249.43 548.41,-255.05 551.93,-253.15 552.88,-254.90 549.37,-256.81"/>
    </edge>
    <edge id=":11586012567_w0" function="walkingarea">
        <lane id=":11586012567_w0_0" index="0" allow="pedestrian" speed="2.78" length="5.35" width="4.00" shape="540.61,252.00 539.66,250.25 540.19,247.92 543.07,246.52 545.95,245.13 547.93,245.76 548.88,247.52 545.36,249.43"/>
    </edge>
    <edge id=":11586012567_w1" function="walkingarea">
        <lane id=":11586012567_w1_0" index="0" allow="pedestrian" speed="2.78" length="6.37" width="4.00" shape="548.41,255.05 551.93,253.15 552.88,254.90 544.61,259.39 543.66,257.63"/>
    </edge>
    <edge id=":11586035475_0" function="internal">
        <lane id=":11586035475_0_0" index="0" allow="pedestrian delivery bicycle" speed="3.65" length="4.67" shape="531.29,177.67 530.15,176.79 529.26,176.66 528.63,177.30 528.25,178.69"/>
    </edge>
    <edge id=":12056913103_0" function="internal">
        <lane id=":12056913103_0_0" index="0" allow="pedestrian delivery bicycle" speed="3.65" length="4.67" shape="139.60,450.03 140.35,451.27 141.13,451.70 141.95,451.33 142.80,450.17"/>
    </edge>
    <edge id=":12072068730_0" function="internal">
        <lane id=":12072068730_0_0" index="0" allow="delivery bicycle" speed="5.47" length="7.44" shape="143.59,431.22 143.95,428.79 144.78,427.26 146.08,426.63 147.86,426.89"/>
    </edge>
    <edge id=":12072068730_1" function="internal">
        <lane id=":12072068730_1_0" index="0" allow="delivery bicycle" speed="6.89" length="7.92" shape="138.72,423.67 139.55,424.39 140.11,425.87 140.39,428.10 140.39,431.09"/>
    </edge>
    <edge id=":12072068730_2" function="internal">